1.D
     RDKit          3D

 34 35  0  0  0  0  0  0  0  0999 V2000
   18.4290  -12.1600   11.4250 N   0  0  0  0  0  0  0  0  0  0  0  0
   17.9810   -9.9490   10.9480 N   0  0  0  0  0  0  0  0  0  0  0  0
   17.6540  -11.1320   11.6650 C   0  0  0  0  0  0  0  0  0  0  0  0
   16.3250  -10.8150   12.8250 S   0  0  0  0  0  0  0  0  0  0  0  0
   16.3010  -12.3330   13.6870 C   0  0  0  0  0  0  0  0  0  0  0  0
   15.0410  -12.3090   14.5570 C   0  0  0  0  0  0  0  0  0  0  0  0
   14.8670  -11.0460   15.3690 C   0  0  0  0  0  0  0  0  0  0  0  0
   13.6630  -11.3180   16.3400 C   0  0  1  0  0  0  0  0  0  0  0  0
   13.5550  -10.2610   17.4480 B   0  0  0  0  0  0  0  0  0  0  0  0
   14.6300   -9.9660   18.3560 O   0  0  0  0  0  0  0  0  0  0  0  0
   12.4140  -10.3380   18.2540 O   0  0  0  0  0  0  0  0  0  0  0  0
   12.3690  -11.2370   15.5550 N   0  0  0  0  0  0  0  0  0  0  0  0
   11.7540  -12.5330   15.3520 C   0  0  0  0  0  0  0  0  0  0  0  0
   11.9740  -13.5970   15.9520 O   0  0  0  0  0  0  0  0  0  0  0  0
   10.4110  -12.4450   14.6530 C   0  0  2  0  0  0  0  0  0  0  0  0
    9.2070  -12.2770   15.6760 C   0  0  0  0  0  0  0  0  0  0  0  0
    8.2190  -13.4990   15.3830 C   0  0  0  0  0  0  0  0  0  0  0  0
    8.9620  -14.5490   14.5190 C   0  0  0  0  0  0  0  0  0  0  0  0
   10.0510  -13.6960   13.9640 N   0  0  0  0  0  0  0  0  0  0  0  0
   11.0390  -14.1850   13.0720 C   0  0  0  0  0  0  0  0  0  0  0  0
   12.0810  -13.5340   12.7830 O   0  0  0  0  0  0  0  0  0  0  0  0
   10.8370  -15.5500   12.4580 C   0  0  1  0  0  0  0  0  0  0  0  0
   10.5290  -15.4890   10.8800 C   0  0  0  0  0  0  0  0  0  0  0  0
    9.0430  -15.0410   10.7570 C   0  0  0  0  0  0  0  0  0  0  0  0
    8.7570  -13.8180   10.1120 C   0  0  0  0  0  0  0  0  0  0  0  0
    7.4460  -13.2870   10.0850 C   0  0  0  0  0  0  0  0  0  0  0  0
    6.3820  -14.0260   10.7000 C   0  0  0  0  0  0  0  0  0  0  0  0
    6.6670  -15.2890   11.3100 C   0  0  0  0  0  0  0  0  0  0  0  0
    7.9720  -15.7720   11.3400 C   0  0  0  0  0  0  0  0  0  0  0  0
   12.0720  -16.2390   12.5690 N   0  0  0  0  0  0  0  0  0  0  0  0
   12.0110  -17.6370   13.0870 C   0  0  0  0  0  0  0  0  0  0  0  0
   10.9480  -18.2010   12.8430 O   0  0  0  0  0  0  0  0  0  0  0  0
   12.5880  -17.9000   14.4970 C   0  0  0  0  0  0  0  0  0  0  0  0
   14.1200  -17.8830   14.3570 C   0  0  0  0  0  0  0  0  0  0  0  0
  1  3  2  0
  2  3  1  0
  3  4  1  0
  4  5  1  0
  5  6  1  0
  6  7  1  0
  8  7  1  6
  8  9  1  0
  8 12  1  0
  9 10  1  0
  9 11  1  0
 12 13  1  0
 13 14  2  0
 15 13  1  1
 15 16  1  0
 15 19  1  0
 16 17  1  0
 17 18  1  0
 18 19  1  0
 19 20  1  0
 20 21  2  0
 20 22  1  0
 22 23  1  6
 22 30  1  0
 23 24  1  0
 24 25  2  0
 24 29  1  0
 25 26  1  0
 26 27  2  0
 27 28  1  0
 28 29  2  0
 30 31  1  0
 31 32  2  0
 31 33  1  0
 33 34  1  0
M  END
$$$$
